butane
  cahier-physique  Angstrom, voir outils/molecules/LISEZMOI.md
construit (outils/molecules/construire.py) depuis CCCBDB experimental
 14 13  0  0  0  0  0  0  0  0999 V2000
    0.0000    0.0000    0.0000 C   0  0  0  0  0  0  0  0  0  0  0  0
    1.5310    0.0000    0.0000 C   0  0  0  0  0  0  0  0  0  0  0  0
    2.1488   -1.4008    0.0000 C   0  0  0  0  0  0  0  0  0  0  0  0
    3.6798   -1.4008   -0.0000 C   0  0  0  0  0  0  0  0  0  0  0  0
   -0.4003    1.0428    0.0000 H   0  0  0  0  0  0  0  0  0  0  0  0
   -0.4003   -0.5214    0.9031 H   0  0  0  0  0  0  0  0  0  0  0  0
   -0.4003   -0.5214   -0.9031 H   0  0  0  0  0  0  0  0  0  0  0  0
    1.8832    0.5402   -0.9120 H   0  0  0  0  0  0  0  0  0  0  0  0
    1.8832    0.5402    0.9120 H   0  0  0  0  0  0  0  0  0  0  0  0
    1.7966   -1.9410   -0.9120 H   0  0  0  0  0  0  0  0  0  0  0  0
    1.7966   -1.9410    0.9120 H   0  0  0  0  0  0  0  0  0  0  0  0
    4.0801   -2.4436   -0.0000 H   0  0  0  0  0  0  0  0  0  0  0  0
    4.0801   -0.8794    0.9031 H   0  0  0  0  0  0  0  0  0  0  0  0
    4.0801   -0.8794   -0.9031 H   0  0  0  0  0  0  0  0  0  0  0  0
  1  2  1  0  0  0  0
  1  5  1  0  0  0  0
  1  6  1  0  0  0  0
  1  7  1  0  0  0  0
  2  3  1  0  0  0  0
  2  8  1  0  0  0  0
  2  9  1  0  0  0  0
  3  4  1  0  0  0  0
  3 10  1  0  0  0  0
  3 11  1  0  0  0  0
  4 12  1  0  0  0  0
  4 13  1  0  0  0  0
  4 14  1  0  0  0  0
M  END
