propan-2-ol
  cahier-physique  CALCULE B3LYP/6-31G* (CCCBDB), conformere gauche, pas mesure
Coordonnees en Angstrom, voir outils/molecules/LISEZMOI.md
 12 11  0  0  0  0  0  0  0  0999 V2000
    0.0017    0.0418    0.3651 C   0  0  0  0  0  0  0  0  0  0  0  0
   -1.2054   -0.7735   -0.1035 C   0  0  0  0  0  0  0  0  0  0  0  0
    1.3258   -0.5609   -0.0884 C   0  0  0  0  0  0  0  0  0  0  0  0
   -0.0358    1.3699   -0.1670 O   0  0  0  0  0  0  0  0  0  0  0  0
   -0.0063    0.0847    1.4681 H   0  0  0  0  0  0  0  0  0  0  0  0
   -2.1453   -0.3110    0.2256 H   0  0  0  0  0  0  0  0  0  0  0  0
   -1.2206   -0.8334   -1.1976 H   0  0  0  0  0  0  0  0  0  0  0  0
   -1.1789   -1.7919    0.3018 H   0  0  0  0  0  0  0  0  0  0  0  0
    2.1608    0.0633    0.2447 H   0  0  0  0  0  0  0  0  0  0  0  0
    1.4563   -1.5683    0.3216 H   0  0  0  0  0  0  0  0  0  0  0  0
    1.3591   -0.6214   -1.1822 H   0  0  0  0  0  0  0  0  0  0  0  0
   -0.8713    1.7742    0.1144 H   0  0  0  0  0  0  0  0  0  0  0  0
  1  2  1  0  0  0  0
  1  3  1  0  0  0  0
  1  4  1  0  0  0  0
  1  5  1  0  0  0  0
  2  6  1  0  0  0  0
  2  7  1  0  0  0  0
  2  8  1  0  0  0  0
  3  9  1  0  0  0  0
  3 10  1  0  0  0  0
  3 11  1  0  0  0  0
  4 12  1  0  0  0  0
M  END
