propan-1-ol
  cahier-physique  construit, parametres TRANSFERES ethanol/butane (CCCBDB)
Coordonnees en Angstrom, voir outils/molecules/LISEZMOI.md
 12 11  0  0  0  0  0  0  0  0999 V2000
    0.0000    0.0000    0.0000 C   0  0  0  0  0  0  0  0  0  0  0  0
    1.4310    0.0000    0.0000 O   0  0  0  0  0  0  0  0  0  0  0  0
   -0.4622    1.4396    0.0000 C   0  0  0  0  0  0  0  0  0  0  0  0
   -1.9848    1.5997   -0.0000 C   0  0  0  0  0  0  0  0  0  0  0  0
    1.6889   -0.9361    0.0000 H   0  0  0  0  0  0  0  0  0  0  0  0
   -0.3694   -0.5066    0.8867 H   0  0  0  0  0  0  0  0  0  0  0  0
   -0.3694   -0.5066   -0.8867 H   0  0  0  0  0  0  0  0  0  0  0  0
   -0.0668    1.9262    0.8867 H   0  0  0  0  0  0  0  0  0  0  0  0
   -0.0668    1.9262   -0.8867 H   0  0  0  0  0  0  0  0  0  0  0  0
   -2.2383    2.6577   -0.0000 H   0  0  0  0  0  0  0  0  0  0  0  0
   -2.4029    1.1231    0.8965 H   0  0  0  0  0  0  0  0  0  0  0  0
   -2.4029    1.1231   -0.8965 H   0  0  0  0  0  0  0  0  0  0  0  0
  1  2  1  0  0  0  0
  1  3  1  0  0  0  0
  1  6  1  0  0  0  0
  1  7  1  0  0  0  0
  2  5  1  0  0  0  0
  3  4  1  0  0  0  0
  3  8  1  0  0  0  0
  3  9  1  0  0  0  0
  4 10  1  0  0  0  0
  4 11  1  0  0  0  0
  4 12  1  0  0  0  0
M  END
