ethanol
  cahier-physique  Angstrom, voir outils/molecules/LISEZMOI.md
construit (outils/molecules/construire.py) depuis CCCBDB experimental
  9  8  0  0  0  0  0  0  0  0999 V2000
    0.0000    0.0000    0.0000 C   0  0  0  0  0  0  0  0  0  0  0  0
    1.5120    0.0000    0.0000 C   0  0  0  0  0  0  0  0  0  0  0  0
    1.9494   -1.3625    0.0000 O   0  0  0  0  0  0  0  0  0  0  0  0
    2.9196   -1.3218   -0.0000 H   0  0  0  0  0  0  0  0  0  0  0  0
   -0.3627    1.0258    0.0000 H   0  0  0  0  0  0  0  0  0  0  0  0
   -0.3660   -0.5176    0.8965 H   0  0  0  0  0  0  0  0  0  0  0  0
   -0.3660   -0.5176   -0.8965 H   0  0  0  0  0  0  0  0  0  0  0  0
    1.8814    0.5066   -0.8867 H   0  0  0  0  0  0  0  0  0  0  0  0
    1.8814    0.5066    0.8867 H   0  0  0  0  0  0  0  0  0  0  0  0
  1  2  1  0  0  0  0
  1  5  1  0  0  0  0
  1  6  1  0  0  0  0
  1  7  1  0  0  0  0
  2  3  1  0  0  0  0
  2  8  1  0  0  0  0
  2  9  1  0  0  0  0
  3  4  1  0  0  0  0
M  END
