ethanol
  cahier-physique  CCCBDB experimental (Coussan 1998), coordonnees cartesiennes recopiees
, anti
  9  8  0  0  0  0  0  0  0  0999 V2000
    1.1879   -0.3829    0.0000 C   0  0  0  0  0  0  0  0  0  0  0  0
    0.0000    0.5526    0.0000 C   0  0  0  0  0  0  0  0  0  0  0  0
   -1.1867   -0.2472    0.0000 O   0  0  0  0  0  0  0  0  0  0  0  0
   -1.9237    0.3850    0.0000 H   0  0  0  0  0  0  0  0  0  0  0  0
    2.0985    0.2306    0.0000 H   0  0  0  0  0  0  0  0  0  0  0  0
    1.1184   -1.0093    0.8869 H   0  0  0  0  0  0  0  0  0  0  0  0
    1.1184   -1.0093   -0.8869 H   0  0  0  0  0  0  0  0  0  0  0  0
   -0.0227    1.1812    0.8852 H   0  0  0  0  0  0  0  0  0  0  0  0
   -0.0227    1.1812   -0.8852 H   0  0  0  0  0  0  0  0  0  0  0  0
  1  2  1  0  0  0  0
  1  5  1  0  0  0  0
  1  6  1  0  0  0  0
  1  7  1  0  0  0  0
  2  3  1  0  0  0  0
  2  8  1  0  0  0  0
  2  9  1  0  0  0  0
  3  4  1  0  0  0  0
M  END
