propanone
  cahier-physique  Angstrom, voir outils/molecules/LISEZMOI.md
construit (outils/molecules/construire.py) depuis CCCBDB experimental
 10  9  0  0  0  0  0  0  0  0999 V2000
    0.0000    0.0000    0.0000 C   0  0  0  0  0  0  0  0  0  0  0  0
    1.2140    0.0000    0.0000 O   0  0  0  0  0  0  0  0  0  0  0  0
   -0.8055    1.2890    0.0000 C   0  0  0  0  0  0  0  0  0  0  0  0
   -0.8055   -1.2890   -0.0000 C   0  0  0  0  0  0  0  0  0  0  0  0
   -0.1340    2.1641    0.0000 H   0  0  0  0  0  0  0  0  0  0  0  0
   -1.4483    1.3429   -0.8947 H   0  0  0  0  0  0  0  0  0  0  0  0
   -1.4483    1.3429    0.8947 H   0  0  0  0  0  0  0  0  0  0  0  0
   -0.1340   -2.1641   -0.0000 H   0  0  0  0  0  0  0  0  0  0  0  0
   -1.4483   -1.3429    0.8947 H   0  0  0  0  0  0  0  0  0  0  0  0
   -1.4483   -1.3429   -0.8947 H   0  0  0  0  0  0  0  0  0  0  0  0
  1  2  2  0  0  0  0
  1  3  1  0  0  0  0
  1  4  1  0  0  0  0
  3  5  1  0  0  0  0
  3  6  1  0  0  0  0
  3  7  1  0  0  0  0
  4  8  1  0  0  0  0
  4  9  1  0  0  0  0
  4 10  1  0  0  0  0
M  END
